MODEL 1
REMARK VINA RESULT:    -7.904      0.000      0.000
REMARK INTER + INTRA:         -14.206
REMARK INTER:                 -12.750
REMARK INTRA:                  -1.457
REMARK UNBOUND:                -1.682
REMARK SMILES [H]/N=C/C(CC1CCNC1=O)NC(=O)C1C2C(CN1C(=O)C(NC(=O)C(F)(F)F)C(C)(C)C)C2(C)C
REMARK SMILES IDX 18 1 15 2 17 3 16 4 34 5 35 6 36 7 19 8 13 9 12 10 14 12
REMARK SMILES IDX 4 13 5 14 6 15 10 16 11 17 9 18 8 19 7 21 3 22 2 23 1 24
REMARK SMILES IDX 20 25 21 26 22 27 23 28 24 29 25 31 26 32 27 33 29 34 28 35
REMARK SMILES IDX 30 36 31 37 32 38 33 39
REMARK H PARENT 12 11 9 20 23 30
REMARK Flexibility Score: inf
ROOT
ATOM      1  C   UNL     1      10.545   1.050  24.283  1.00  0.00     0.125 C 
ATOM      2  C   UNL     1      10.303   0.010  22.190  1.00  0.00     0.178 C 
ATOM      3  C   UNL     1      11.478  -0.179  24.336  1.00  0.00     0.021 C 
ATOM      4  C   UNL     1      11.314  -0.864  22.963  1.00  0.00     0.033 C 
ATOM      5  C   UNL     1      12.680  -0.214  23.389  1.00  0.00    -0.025 C 
ATOM      6  C   UNL     1      13.083   1.092  22.704  1.00  0.00     0.012 C 
ATOM      7  C   UNL     1      13.832  -1.159  23.736  1.00  0.00     0.012 C 
ATOM      8  N   UNL     1      10.398   1.345  22.838  1.00  0.00    -0.328 N 
ENDROOT
BRANCH   2   9
ATOM      9  C   UNL     1       8.909  -0.544  22.331  1.00  0.00     0.243 C 
ATOM     10  N   UNL     1       8.001  -0.340  21.355  1.00  0.00    -0.347 N 
ATOM     11  H   UNL     1       8.246   0.163  20.563  1.00  0.00     0.164 HD
ATOM     12  O   UNL     1       8.603  -1.173  23.322  1.00  0.00    -0.273 OA
BRANCH  10  13
ATOM     13  C   UNL     1       6.645  -0.879  21.492  1.00  0.00     0.123 C 
BRANCH  13  14
ATOM     14  C   UNL     1       5.640   0.121  20.919  1.00  0.00     0.044 C 
BRANCH  14  15
ATOM     15  C   UNL     1       6.383   1.179  20.101  1.00  0.00     0.082 C 
ATOM     16  C   UNL     1       5.832   1.245  18.694  1.00  0.00     0.223 C 
ATOM     17  O   UNL     1       6.085   0.453  17.812  1.00  0.00    -0.275 OA
ATOM     18  N   UNL     1       5.024   2.312  18.563  1.00  0.00    -0.356 N 
ATOM     19  C   UNL     1       4.927   3.064  19.819  1.00  0.00     0.116 C 
ATOM     20  H   UNL     1       4.566   2.554  17.743  1.00  0.00     0.163 HD
ATOM     21  C   UNL     1       6.121   2.591  20.677  1.00  0.00     0.035 C 
ENDBRANCH  14  15
ENDBRANCH  13  14
BRANCH  13  22
ATOM     22  C   UNL     1       6.544  -2.181  20.740  1.00  0.00     0.098 C 
ATOM     23  N   UNL     1       5.915  -2.229  19.626  1.00  0.00    -0.311 NA
ATOM     24  H   UNL     1       5.851  -3.068  19.143  1.00  0.00     0.187 HD
ENDBRANCH  13  22
ENDBRANCH  10  13
ENDBRANCH   2   9
BRANCH   8  25
ATOM     25  C   UNL     1      10.370   2.555  22.246  1.00  0.00     0.246 C 
ATOM     26  O   UNL     1      10.087   2.649  21.070  1.00  0.00    -0.272 OA
BRANCH  25  27
ATOM     27  C   UNL     1      10.691   3.792  23.045  1.00  0.00     0.177 C 
BRANCH  27  28
ATOM     28  N   UNL     1      11.473   4.717  22.220  1.00  0.00    -0.336 N 
ATOM     29  C   UNL     1      12.681   5.141  22.641  1.00  0.00     0.326 C 
ATOM     30  H   UNL     1      11.120   5.025  21.371  1.00  0.00     0.164 HD
ATOM     31  O   UNL     1      13.121   4.756  23.705  1.00  0.00    -0.265 OA
BRANCH  29  32
ATOM     32  C   UNL     1      13.483   6.092  21.794  1.00  0.00     0.471 C 
ATOM     33  F   UNL     1      14.844   5.787  21.911  1.00  0.00    -0.162 F 
ATOM     34  F   UNL     1      13.261   7.404  22.225  1.00  0.00    -0.162 F 
ATOM     35  F   UNL     1      13.092   5.969  20.455  1.00  0.00    -0.162 F 
ENDBRANCH  29  32
ENDBRANCH  27  28
BRANCH  27  36
ATOM     36  C   UNL     1       9.390   4.470  23.479  1.00  0.00    -0.009 C 
ATOM     37  C   UNL     1       8.277   3.425  23.574  1.00  0.00     0.013 C 
ATOM     38  C   UNL     1       9.003   5.535  22.451  1.00  0.00     0.013 C 
ATOM     39  C   UNL     1       9.590   5.128  24.846  1.00  0.00     0.013 C 
ENDBRANCH  27  36
ENDBRANCH  25  27
ENDBRANCH   8  25
TORSDOF 10
ENDMDL
MODEL 2
REMARK VINA RESULT:    -7.211      3.278      5.770
REMARK INTER + INTRA:         -13.109
REMARK INTER:                 -12.206
REMARK INTRA:                  -0.903
REMARK UNBOUND:                -1.682
REMARK SMILES [H]/N=C/C(CC1CCNC1=O)NC(=O)C1C2C(CN1C(=O)C(NC(=O)C(F)(F)F)C(C)(C)C)C2(C)C
REMARK SMILES IDX 18 1 15 2 17 3 16 4 34 5 35 6 36 7 19 8 13 9 12 10 14 12
REMARK SMILES IDX 4 13 5 14 6 15 10 16 11 17 9 18 8 19 7 21 3 22 2 23 1 24
REMARK SMILES IDX 20 25 21 26 22 27 23 28 24 29 25 31 26 32 27 33 29 34 28 35
REMARK SMILES IDX 30 36 31 37 32 38 33 39
REMARK H PARENT 12 11 9 20 23 30
REMARK Flexibility Score: inf
ROOT
ATOM      1  C   UNL     1       9.163  -0.150  21.050  1.00  0.00     0.125 C 
ATOM      2  C   UNL     1       7.997  -0.860  22.962  1.00  0.00     0.178 C 
ATOM      3  C   UNL     1       7.671   0.040  20.704  1.00  0.00     0.021 C 
ATOM      4  C   UNL     1       6.906  -0.431  21.958  1.00  0.00     0.033 C 
ATOM      5  C   UNL     1       6.871   1.072  21.502  1.00  0.00    -0.025 C 
ATOM      6  C   UNL     1       7.652   2.083  22.342  1.00  0.00     0.012 C 
ATOM      7  C   UNL     1       5.569   1.592  20.889  1.00  0.00     0.012 C 
ATOM      8  N   UNL     1       9.210  -0.115  22.531  1.00  0.00    -0.328 N 
ENDROOT
BRANCH   2   9
ATOM      9  C   UNL     1       8.237  -2.346  22.880  1.00  0.00     0.243 C 
ATOM     10  N   UNL     1       7.294  -3.152  22.352  1.00  0.00    -0.347 N 
ATOM     11  H   UNL     1       6.461  -2.776  22.027  1.00  0.00     0.164 HD
ATOM     12  O   UNL     1       9.278  -2.816  23.287  1.00  0.00    -0.273 OA
BRANCH  10  13
ATOM     13  C   UNL     1       7.527  -4.597  22.272  1.00  0.00     0.123 C 
BRANCH  13  14
ATOM     14  C   UNL     1       7.612  -5.178  23.684  1.00  0.00     0.044 C 
BRANCH  14  15
ATOM     15  C   UNL     1       6.295  -4.923  24.420  1.00  0.00     0.082 C 
ATOM     16  C   UNL     1       5.724  -6.221  24.949  1.00  0.00     0.223 C 
ATOM     17  O   UNL     1       5.137  -7.045  24.281  1.00  0.00    -0.275 OA
ATOM     18  N   UNL     1       5.959  -6.325  26.269  1.00  0.00    -0.356 N 
ATOM     19  C   UNL     1       6.695  -5.160  26.773  1.00  0.00     0.116 C 
ATOM     20  H   UNL     1       5.676  -7.073  26.817  1.00  0.00     0.163 HD
ATOM     21  C   UNL     1       6.539  -4.072  25.688  1.00  0.00     0.035 C 
ENDBRANCH  14  15
ENDBRANCH  13  14
BRANCH  13  22
ATOM     22  C   UNL     1       6.391  -5.248  21.527  1.00  0.00     0.098 C 
ATOM     23  N   UNL     1       6.383  -6.516  21.354  1.00  0.00    -0.311 NA
ATOM     24  H   UNL     1       5.650  -6.934  20.875  1.00  0.00     0.187 HD
ENDBRANCH  13  22
ENDBRANCH  10  13
ENDBRANCH   2   9
BRANCH   8  25
ATOM     25  C   UNL     1      10.139   0.473  23.310  1.00  0.00     0.246 C 
ATOM     26  O   UNL     1       9.936   0.612  24.498  1.00  0.00    -0.272 OA
BRANCH  25  27
ATOM     27  C   UNL     1      11.431   0.959  22.704  1.00  0.00     0.177 C 
BRANCH  27  28
ATOM     28  N   UNL     1      11.805   2.238  23.315  1.00  0.00    -0.336 N 
ATOM     29  C   UNL     1      11.937   3.338  22.548  1.00  0.00     0.326 C 
ATOM     30  H   UNL     1      11.959   2.292  24.270  1.00  0.00     0.164 HD
ATOM     31  O   UNL     1      11.745   3.270  21.352  1.00  0.00    -0.265 OA
BRANCH  29  32
ATOM     32  C   UNL     1      12.322   4.652  23.175  1.00  0.00     0.471 C 
ATOM     33  F   UNL     1      11.988   5.699  22.309  1.00  0.00    -0.162 F 
ATOM     34  F   UNL     1      13.701   4.669  23.415  1.00  0.00    -0.162 F 
ATOM     35  F   UNL     1      11.636   4.811  24.384  1.00  0.00    -0.162 F 
ENDBRANCH  29  32
ENDBRANCH  27  28
BRANCH  27  36
ATOM     36  C   UNL     1      12.533  -0.070  22.960  1.00  0.00    -0.009 C 
ATOM     37  C   UNL     1      12.690  -0.285  24.467  1.00  0.00     0.013 C 
ATOM     38  C   UNL     1      13.852   0.439  22.377  1.00  0.00     0.013 C 
ATOM     39  C   UNL     1      12.158  -1.395  22.293  1.00  0.00     0.013 C 
ENDBRANCH  27  36
ENDBRANCH  25  27
ENDBRANCH   8  25
TORSDOF 10
ENDMDL
MODEL 3
REMARK VINA RESULT:    -7.014      2.452      3.622
REMARK INTER + INTRA:         -12.797
REMARK INTER:                 -11.399
REMARK INTRA:                  -1.398
REMARK UNBOUND:                -1.682
REMARK SMILES [H]/N=C/C(CC1CCNC1=O)NC(=O)C1C2C(CN1C(=O)C(NC(=O)C(F)(F)F)C(C)(C)C)C2(C)C
REMARK SMILES IDX 18 1 15 2 17 3 16 4 34 5 35 6 36 7 19 8 13 9 12 10 14 12
REMARK SMILES IDX 4 13 5 14 6 15 10 16 11 17 9 18 8 19 7 21 3 22 2 23 1 24
REMARK SMILES IDX 20 25 21 26 22 27 23 28 24 29 25 31 26 32 27 33 29 34 28 35
REMARK SMILES IDX 30 36 31 37 32 38 33 39
REMARK H PARENT 12 11 9 20 23 30
REMARK Flexibility Score: inf
ROOT
ATOM      1  C   UNL     1      10.745   1.006  24.469  1.00  0.00     0.125 C 
ATOM      2  C   UNL     1      10.226  -0.131  22.479  1.00  0.00     0.178 C 
ATOM      3  C   UNL     1      11.641  -0.251  24.480  1.00  0.00     0.021 C 
ATOM      4  C   UNL     1      11.295  -0.999  23.176  1.00  0.00     0.033 C 
ATOM      5  C   UNL     1      12.720  -0.378  23.403  1.00  0.00    -0.025 C 
ATOM      6  C   UNL     1      13.079   0.876  22.604  1.00  0.00     0.012 C 
ATOM      7  C   UNL     1      13.877  -1.345  23.665  1.00  0.00     0.012 C 
ATOM      8  N   UNL     1      10.437   1.232  23.036  1.00  0.00    -0.328 N 
ENDROOT
BRANCH   2   9
ATOM      9  C   UNL     1       8.842  -0.626  22.813  1.00  0.00     0.243 C 
ATOM     10  N   UNL     1       8.686  -1.701  23.613  1.00  0.00    -0.347 N 
ATOM     11  H   UNL     1       9.465  -2.154  23.973  1.00  0.00     0.164 HD
ATOM     12  O   UNL     1       7.870  -0.059  22.363  1.00  0.00    -0.273 OA
BRANCH  10  13
ATOM     13  C   UNL     1       7.341  -2.182  23.938  1.00  0.00     0.123 C 
BRANCH  13  14
ATOM     14  C   UNL     1       7.378  -3.698  24.137  1.00  0.00     0.044 C 
BRANCH  14  15
ATOM     15  C   UNL     1       6.472  -4.371  23.104  1.00  0.00     0.082 C 
ATOM     16  C   UNL     1       7.025  -4.176  21.709  1.00  0.00     0.223 C 
ATOM     17  O   UNL     1       6.929  -3.157  21.060  1.00  0.00    -0.275 OA
ATOM     18  N   UNL     1       7.634  -5.300  21.292  1.00  0.00    -0.356 N 
ATOM     19  C   UNL     1       7.577  -6.349  22.317  1.00  0.00     0.116 C 
ATOM     20  H   UNL     1       8.055  -5.404  20.425  1.00  0.00     0.163 HD
ATOM     21  C   UNL     1       6.472  -5.905  23.301  1.00  0.00     0.035 C 
ENDBRANCH  14  15
ENDBRANCH  13  14
BRANCH  13  22
ATOM     22  C   UNL     1       6.863  -1.520  25.205  1.00  0.00     0.098 C 
ATOM     23  N   UNL     1       6.166  -0.448  25.142  1.00  0.00    -0.311 NA
ATOM     24  H   UNL     1       5.859  -0.023  25.959  1.00  0.00     0.187 HD
ENDBRANCH  13  22
ENDBRANCH  10  13
ENDBRANCH   2   9
BRANCH   8  25
ATOM     25  C   UNL     1      10.375   2.410  22.386  1.00  0.00     0.246 C 
ATOM     26  O   UNL     1      10.124   2.435  21.199  1.00  0.00    -0.272 OA
BRANCH  25  27
ATOM     27  C   UNL     1      10.618   3.697  23.132  1.00  0.00     0.177 C 
BRANCH  27  28
ATOM     28  N   UNL     1      11.356   4.627  22.274  1.00  0.00    -0.336 N 
ATOM     29  C   UNL     1      12.613   4.989  22.596  1.00  0.00     0.326 C 
ATOM     30  H   UNL     1      10.939   4.983  21.474  1.00  0.00     0.164 HD
ATOM     31  O   UNL     1      13.134   4.544  23.598  1.00  0.00    -0.265 OA
BRANCH  29  32
ATOM     32  C   UNL     1      13.371   5.946  21.714  1.00  0.00     0.471 C 
ATOM     33  F   UNL     1      14.745   5.792  21.931  1.00  0.00    -0.162 F 
ATOM     34  F   UNL     1      12.996   7.259  22.018  1.00  0.00    -0.162 F 
ATOM     35  F   UNL     1      13.079   5.676  20.372  1.00  0.00    -0.162 F 
ENDBRANCH  29  32
ENDBRANCH  27  28
BRANCH  27  36
ATOM     36  C   UNL     1       9.276   4.319  23.524  1.00  0.00    -0.009 C 
ATOM     37  C   UNL     1       8.186   3.246  23.487  1.00  0.00     0.013 C 
ATOM     38  C   UNL     1       8.926   5.437  22.540  1.00  0.00     0.013 C 
ATOM     39  C   UNL     1       9.376   4.897  24.938  1.00  0.00     0.013 C 
ENDBRANCH  27  36
ENDBRANCH  25  27
ENDBRANCH   8  25
TORSDOF 10
ENDMDL
MODEL 4
REMARK VINA RESULT:    -6.905      3.297      7.038
REMARK INTER + INTRA:         -12.623
REMARK INTER:                 -11.911
REMARK INTRA:                  -0.712
REMARK UNBOUND:                -1.682
REMARK SMILES [H]/N=C/C(CC1CCNC1=O)NC(=O)C1C2C(CN1C(=O)C(NC(=O)C(F)(F)F)C(C)(C)C)C2(C)C
REMARK SMILES IDX 18 1 15 2 17 3 16 4 34 5 35 6 36 7 19 8 13 9 12 10 14 12
REMARK SMILES IDX 4 13 5 14 6 15 10 16 11 17 9 18 8 19 7 21 3 22 2 23 1 24
REMARK SMILES IDX 20 25 21 26 22 27 23 28 24 29 25 31 26 32 27 33 29 34 28 35
REMARK SMILES IDX 30 36 31 37 32 38 33 39
REMARK H PARENT 12 11 9 20 23 30
REMARK Flexibility Score: inf
ROOT
ATOM      1  C   UNL     1      12.203  -0.060  21.446  1.00  0.00     0.125 C 
ATOM      2  C   UNL     1      11.141   0.920  23.298  1.00  0.00     0.178 C 
ATOM      3  C   UNL     1      13.253  -0.098  22.576  1.00  0.00     0.021 C 
ATOM      4  C   UNL     1      12.556   0.551  23.791  1.00  0.00     0.033 C 
ATOM      5  C   UNL     1      12.963  -0.967  23.802  1.00  0.00    -0.025 C 
ATOM      6  C   UNL     1      11.839  -1.999  23.692  1.00  0.00     0.012 C 
ATOM      7  C   UNL     1      14.146  -1.373  24.683  1.00  0.00     0.012 C 
ATOM      8  N   UNL     1      10.900   0.008  22.148  1.00  0.00    -0.328 N 
ENDROOT
BRANCH   2   9
ATOM      9  C   UNL     1      11.096   2.357  22.845  1.00  0.00     0.243 C 
ATOM     10  N   UNL     1      11.949   3.257  23.376  1.00  0.00    -0.347 N 
ATOM     11  H   UNL     1      12.589   2.979  24.050  1.00  0.00     0.164 HD
ATOM     12  O   UNL     1      10.295   2.704  22.003  1.00  0.00    -0.273 OA
BRANCH  10  13
ATOM     13  C   UNL     1      11.906   4.655  22.936  1.00  0.00     0.123 C 
BRANCH  13  14
ATOM     14  C   UNL     1      11.470   5.542  24.103  1.00  0.00     0.044 C 
BRANCH  14  15
ATOM     15  C   UNL     1      12.011   6.958  23.897  1.00  0.00     0.082 C 
ATOM     16  C   UNL     1      10.933   7.861  23.339  1.00  0.00     0.223 C 
ATOM     17  O   UNL     1      10.574   7.881  22.182  1.00  0.00    -0.275 OA
ATOM     18  N   UNL     1      10.435   8.642  24.314  1.00  0.00    -0.356 N 
ATOM     19  C   UNL     1      11.083   8.368  25.601  1.00  0.00     0.116 C 
ATOM     20  H   UNL     1       9.737   9.303  24.181  1.00  0.00     0.163 HD
ATOM     21  C   UNL     1      12.378   7.600  25.256  1.00  0.00     0.035 C 
ENDBRANCH  14  15
ENDBRANCH  13  14
BRANCH  13  22
ATOM     22  C   UNL     1      13.275   5.075  22.468  1.00  0.00     0.098 C 
ATOM     23  N   UNL     1      14.318   4.541  22.981  1.00  0.00    -0.311 NA
ATOM     24  H   UNL     1      15.200   4.813  22.679  1.00  0.00     0.187 HD
ENDBRANCH  13  22
ENDBRANCH  10  13
ENDBRANCH   2   9
BRANCH   8  25
ATOM     25  C   UNL     1       9.758  -0.628  21.822  1.00  0.00     0.246 C 
ATOM     26  O   UNL     1       9.778  -1.809  21.547  1.00  0.00    -0.272 OA
BRANCH  25  27
ATOM     27  C   UNL     1       8.455   0.129  21.798  1.00  0.00     0.177 C 
BRANCH  27  28
ATOM     28  N   UNL     1       7.807  -0.055  20.496  1.00  0.00    -0.336 N 
ATOM     29  C   UNL     1       7.316   1.010  19.831  1.00  0.00     0.326 C 
ATOM     30  H   UNL     1       7.731  -0.942  20.113  1.00  0.00     0.164 HD
ATOM     31  O   UNL     1       7.410   2.120  20.311  1.00  0.00    -0.265 OA
BRANCH  29  32
ATOM     32  C   UNL     1       6.650   0.821  18.494  1.00  0.00     0.471 C 
ATOM     33  F   UNL     1       5.352   1.340  18.541  1.00  0.00    -0.162 F 
ATOM     34  F   UNL     1       6.595  -0.543  18.187  1.00  0.00    -0.162 F 
ATOM     35  F   UNL     1       7.384   1.491  17.508  1.00  0.00    -0.162 F 
ENDBRANCH  29  32
ENDBRANCH  27  28
BRANCH  27  36
ATOM     36  C   UNL     1       7.538  -0.400  22.903  1.00  0.00    -0.009 C 
ATOM     37  C   UNL     1       6.602  -1.463  22.324  1.00  0.00     0.013 C 
ATOM     38  C   UNL     1       6.709   0.753  23.473  1.00  0.00     0.013 C 
ATOM     39  C   UNL     1       8.386  -1.019  24.016  1.00  0.00     0.013 C 
ENDBRANCH  27  36
ENDBRANCH  25  27
ENDBRANCH   8  25
TORSDOF 10
ENDMDL
MODEL 5
REMARK VINA RESULT:    -6.834     24.357     26.911
REMARK INTER + INTRA:         -12.511
REMARK INTER:                 -11.228
REMARK INTRA:                  -1.283
REMARK UNBOUND:                -1.682
REMARK SMILES [H]/N=C/C(CC1CCNC1=O)NC(=O)C1C2C(CN1C(=O)C(NC(=O)C(F)(F)F)C(C)(C)C)C2(C)C
REMARK SMILES IDX 18 1 15 2 17 3 16 4 34 5 35 6 36 7 19 8 13 9 12 10 14 12
REMARK SMILES IDX 4 13 5 14 6 15 10 16 11 17 9 18 8 19 7 21 3 22 2 23 1 24
REMARK SMILES IDX 20 25 21 26 22 27 23 28 24 29 25 31 26 32 27 33 29 34 28 35
REMARK SMILES IDX 30 36 31 37 32 38 33 39
REMARK H PARENT 12 11 9 20 23 30
REMARK Flexibility Score: inf
ROOT
ATOM      1  C   UNL     1      10.384  21.404   3.855  1.00  0.00     0.125 C 
ATOM      2  C   UNL     1      12.319  20.116   3.515  1.00  0.00     0.178 C 
ATOM      3  C   UNL     1      11.501  22.148   4.618  1.00  0.00     0.021 C 
ATOM      4  C   UNL     1      12.770  21.299   4.398  1.00  0.00     0.033 C 
ATOM      5  C   UNL     1      12.651  22.750   3.807  1.00  0.00    -0.025 C 
ATOM      6  C   UNL     1      12.462  22.883   2.295  1.00  0.00     0.012 C 
ATOM      7  C   UNL     1      13.487  23.849   4.466  1.00  0.00     0.012 C 
ATOM      8  N   UNL     1      11.098  20.613   2.826  1.00  0.00    -0.328 N 
ENDROOT
BRANCH   2   9
ATOM      9  C   UNL     1      11.989  18.916   4.365  1.00  0.00     0.243 C 
ATOM     10  N   UNL     1      11.457  17.814   3.798  1.00  0.00    -0.347 N 
ATOM     11  H   UNL     1      11.286  17.794   2.844  1.00  0.00     0.164 HD
ATOM     12  O   UNL     1      12.202  18.941   5.559  1.00  0.00    -0.273 OA
BRANCH  10  13
ATOM     13  C   UNL     1      11.136  16.647   4.625  1.00  0.00     0.123 C 
BRANCH  13  14
ATOM     14  C   UNL     1       9.890  15.957   4.069  1.00  0.00     0.044 C 
BRANCH  14  15
ATOM     15  C   UNL     1      10.309  14.860   3.089  1.00  0.00     0.082 C 
ATOM     16  C   UNL     1       9.353  13.689   3.165  1.00  0.00     0.223 C 
ATOM     17  O   UNL     1       9.356  12.846   4.036  1.00  0.00    -0.275 OA
ATOM     18  N   UNL     1       8.504  13.717   2.123  1.00  0.00    -0.356 N 
ATOM     19  C   UNL     1       8.766  14.869   1.253  1.00  0.00     0.116 C 
ATOM     20  H   UNL     1       7.810  13.058   1.965  1.00  0.00     0.163 HD
ATOM     21  C   UNL     1      10.181  15.359   1.631  1.00  0.00     0.035 C 
ENDBRANCH  14  15
ENDBRANCH  13  14
BRANCH  13  22
ATOM     22  C   UNL     1      12.295  15.685   4.606  1.00  0.00     0.098 C 
ATOM     23  N   UNL     1      13.470  16.104   4.320  1.00  0.00    -0.311 NA
ATOM     24  H   UNL     1      14.216  15.483   4.308  1.00  0.00     0.187 HD
ENDBRANCH  13  22
ENDBRANCH  10  13
ENDBRANCH   2   9
BRANCH   8  25
ATOM     25  C   UNL     1      10.727  20.405   1.547  1.00  0.00     0.246 C 
ATOM     26  O   UNL     1      11.463  19.805   0.792  1.00  0.00    -0.272 OA
BRANCH  25  27
ATOM     27  C   UNL     1       9.398  20.917   1.055  1.00  0.00     0.177 C 
BRANCH  27  28
ATOM     28  N   UNL     1       9.614  21.836  -0.066  1.00  0.00    -0.336 N 
ATOM     29  C   UNL     1       9.392  23.156   0.091  1.00  0.00     0.326 C 
ATOM     30  H   UNL     1       9.915  21.494  -0.922  1.00  0.00     0.164 HD
ATOM     31  O   UNL     1       9.013  23.583   1.162  1.00  0.00    -0.265 OA
BRANCH  29  32
ATOM     32  C   UNL     1       9.613  24.099  -1.061  1.00  0.00     0.471 C 
ATOM     33  F   UNL     1       8.622  25.087  -1.053  1.00  0.00    -0.162 F 
ATOM     34  F   UNL     1       9.552  23.389  -2.265  1.00  0.00    -0.162 F 
ATOM     35  F   UNL     1      10.871  24.701  -0.938  1.00  0.00    -0.162 F 
ENDBRANCH  29  32
ENDBRANCH  27  28
BRANCH  27  36
ATOM     36  C   UNL     1       8.538  19.740   0.592  1.00  0.00    -0.009 C 
ATOM     37  C   UNL     1       9.383  18.797  -0.267  1.00  0.00     0.013 C 
ATOM     38  C   UNL     1       7.360  20.262  -0.233  1.00  0.00     0.013 C 
ATOM     39  C   UNL     1       8.010  18.983   1.812  1.00  0.00     0.013 C 
ENDBRANCH  27  36
ENDBRANCH  25  27
ENDBRANCH   8  25
TORSDOF 10
ENDMDL
